nrt/data/MicroGrid_BE_MAS/MicroGrid_BE_MAS.iidm
<?xml version="1.0" encoding="UTF-8"?>
<iidm:network xmlns:iidm="http://www.powsybl.org/schema/iidm/1_5" id="urn:uuid:095c6b30-255d-40d5-85fe-2c9fe6c9846d" caseDate="2021-04-23T17:30:00.000Z" forecastDistance="1036" sourceFormat="CGMES">
    <iidm:substation id="37e14a0f-5e34-4647-a062-8bfd9305fa9d" name="PP_Brussels" country="BE" geographicalTags="ELIA-Brussels">
        <iidm:property name="CGMES.regionId" value="7bf89875-1476-4d1a-a56d-a2965cce3575"/>
        <iidm:property name="CGMES.regionName" value="BE"/>
        <iidm:property name="CGMES.subRegionId" value="61378219-a236-4070-bbec-4e30a6ac848d"/>
        <iidm:voltageLevel id="469df5f7-058f-4451-a998-57a48e8a56fe" name="380.0" nominalV="380.0" lowVoltageLimit="342.0" highVoltageLimit="418.0" topologyKind="BUS_BREAKER">
            <iidm:property name="CGMES.highVoltageLimit" value="418.0"/>
            <iidm:property name="CGMES.lowVoltageLimit" value="342.0"/>
            <iidm:busBreakerTopology>
                <iidm:bus id="469df5f7-058f-4451-a998-57a48e8a56fe_0" name="380.0_0" v="414.3265725948271" angle="0.0"/>
            </iidm:busBreakerTopology>
            <iidm:shunt id="002b0a40-3957-46db-b84a-30420083558f" name="BE_S2" sectionCount="1" voltageRegulatorOn="false" targetV="380.0" targetDeadband="0.5" bus="469df5f7-058f-4451-a998-57a48e8a56fe_0" connectableBus="469df5f7-058f-4451-a998-57a48e8a56fe_0" q="-59.3937623662837">
                <iidm:alias type="CGMES.Terminal1">22af3121-1a66-4546-bd80-4371f417c644</iidm:alias>
                <iidm:property name="CGMES.RegulatingControl" value="bee06911-8d5c-44c4-b2d2-5c22a461b5a0"/>
                <iidm:property name="CGMES.normalSections" value="1"/>
                <iidm:shuntNonLinearModel>
                    <iidm:section b="3.459834E-4" g="1.09E-5"/>
                    <iidm:section b="5.189751E-4" g="1.308E-5"/>
                    <iidm:section b="6.57964E-4" g="1.526E-5"/>
                    <iidm:section b="7.269390700000001E-4" g="1.744E-5"/>
                    <iidm:section b="7.6191137E-4" g="1.962E-5"/>
                </iidm:shuntNonLinearModel>
                <iidm:regulatingTerminal id="a708c3bc-465d-4fe7-b6ef-6fa6408a62b0" side="ONE"/>
            </iidm:shunt>
            <iidm:danglingLine id="78736387-5f60-4832-b3fe-d50daf81b0a6" name="BE-Line_3" p0="-14.06748" q0="63.95825" r="1.05" x="12.0" g="6.0E-5" b="1.49854E-4" bus="469df5f7-058f-4451-a998-57a48e8a56fe_0" connectableBus="469df5f7-058f-4451-a998-57a48e8a56fe_0" ucteXnodeCode="Border_AL11" p="-3.7410258565097205" q="38.535778271243004">
                <iidm:alias type="CGMES.Terminal1">231a4cf8-5069-4d53-96e4-e839f073f1ea</iidm:alias>
                <iidm:alias type="CGMES.Terminal_Boundary">f3b56334-4638-49d3-a6a0-3f417422b8f5</iidm:alias>
                <iidm:property name="CGMES.ConnectivityNode_Boundary" value="b675a570-cb6e-11e1-bcee-406c8f32ef58"/>
                <iidm:property name="CGMES.EquivalentInjection" value="24413233-26c3-4f7e-9f72-4461796938be"/>
                <iidm:property name="CGMES.EquivalentInjectionTerminal" value="53072f42-f77b-47e2-bd9a-e097c910b173"/>
                <iidm:property name="CGMES.Terminal" value="231a4cf8-5069-4d53-96e4-e839f073f1ea"/>
                <iidm:property name="CGMES.Terminal_Boundary" value="f3b56334-4638-49d3-a6a0-3f417422b8f5"/>
                <iidm:property name="CGMES.originalClass" value="ACLineSegment"/>
                <iidm:property name="angle" value="0.07910498567360102"/>
                <iidm:property name="lineEnergyIdentificationCodeEIC" value="10T-ES-PT-10004U"/>
                <iidm:property name="v" value="412.5013883421056"/>
                <iidm:currentLimits permanentLimit="1233.9">
                    <iidm:temporaryLimit name="TATL" acceptableDuration="600" value="500.0"/>
                </iidm:currentLimits>
            </iidm:danglingLine>
            <iidm:danglingLine id="b18cd1aa-7808-49b9-a7cf-605eaf07b006" name="BE-Line_5" p0="-27.0286" q0="120.7887" r="0.42" x="6.3" g="4.2E-5" b="6.59734E-5" bus="469df5f7-058f-4451-a998-57a48e8a56fe_0" connectableBus="469df5f7-058f-4451-a998-57a48e8a56fe_0" ucteXnodeCode="Border_GY11" p="-19.780792494648477" q="110.03048864069432">
                <iidm:alias type="CGMES.Terminal1">051d49ba-4360-4372-86bf-50eb8cf29778</iidm:alias>
                <iidm:alias type="CGMES.Terminal_Boundary">02a244ca-8bcb-4e25-8613-e948b8ba1f22</iidm:alias>
                <iidm:property name="CGMES.ConnectivityNode_Boundary" value="b67c8340-cb6e-11e1-bcee-406c8f32ef58"/>
                <iidm:property name="CGMES.EquivalentInjection" value="6f014d4c-c1b0-4eed-8d6d-bae3bc87afcf"/>
                <iidm:property name="CGMES.EquivalentInjectionTerminal" value="b9539c41-d114-4280-8a54-8ecec398091e"/>
                <iidm:property name="CGMES.Terminal" value="051d49ba-4360-4372-86bf-50eb8cf29778"/>
                <iidm:property name="CGMES.Terminal_Boundary" value="02a244ca-8bcb-4e25-8613-e948b8ba1f22"/>
                <iidm:property name="CGMES.originalClass" value="ACLineSegment"/>
                <iidm:property name="angle" value="0.07409028515705755"/>
                <iidm:property name="lineEnergyIdentificationCodeEIC" value="10T-AT-HU-00002U"/>
                <iidm:property name="v" value="412.50901304749357"/>
                <iidm:currentLimits permanentLimit="1876.0">
                    <iidm:temporaryLimit name="TATL" acceptableDuration="600" value="500.0"/>
                </iidm:currentLimits>
            </iidm:danglingLine>
            <iidm:danglingLine id="ed0c5d75-4a54-43c8-b782-b20d7431630b" name="BE-Line_4" p0="-8.953211" q0="67.2335" r="0.24" x="2.0" g="4.0E-5" b="2.51956E-5" bus="469df5f7-058f-4451-a998-57a48e8a56fe_0" connectableBus="469df5f7-058f-4451-a998-57a48e8a56fe_0" ucteXnodeCode="Border_MA11" p="-2.080108932780824" q="62.96194023973823">
                <iidm:alias type="CGMES.Terminal_Boundary">f9f29835-8a31-4310-9780-b1ad26f3cbb0</iidm:alias>
                <iidm:alias type="CGMES.Terminal1">c14d2036-72ec-4df3-b1b7-75d8afd9a1fe</iidm:alias>
                <iidm:property name="CGMES.ConnectivityNode_Boundary" value="b67cf870-cb6e-11e1-bcee-406c8f32ef58"/>
                <iidm:property name="CGMES.EquivalentInjection" value="14b352cb-5574-40c5-bf83-0ed3574554a3"/>
                <iidm:property name="CGMES.EquivalentInjectionTerminal" value="c41978db-794b-4bae-953e-60fc519e87dd"/>
                <iidm:property name="CGMES.Terminal" value="c14d2036-72ec-4df3-b1b7-75d8afd9a1fe"/>
                <iidm:property name="CGMES.Terminal_Boundary" value="f9f29835-8a31-4310-9780-b1ad26f3cbb0"/>
                <iidm:property name="CGMES.originalClass" value="ACLineSegment"/>
                <iidm:property name="angle" value="0.01137085617131649"/>
                <iidm:property name="lineEnergyIdentificationCodeEIC" value="10T-AT-SI-00001T"/>
                <iidm:property name="v" value="414.00696055936464"/>
                <iidm:currentLimits permanentLimit="1226.0">
                    <iidm:temporaryLimit name="TATL" acceptableDuration="600" value="500.0"/>
                </iidm:currentLimits>
            </iidm:danglingLine>
        </iidm:voltageLevel>
        <iidm:voltageLevel id="4ba71b59-ee2f-450b-9f7d-cc2f1cc5e386" name="10.5" nominalV="10.5" lowVoltageLimit="9.45" highVoltageLimit="11.55" topologyKind="BUS_BREAKER">
            <iidm:property name="CGMES.highVoltageLimit" value="11.55"/>
            <iidm:property name="CGMES.lowVoltageLimit" value="9.45"/>
            <iidm:busBreakerTopology>
                <iidm:bus id="4ba71b59-ee2f-450b-9f7d-cc2f1cc5e386_0" name="10.5_0" v="10.367894027166507" angle="3.8275817403386516"/>
            </iidm:busBreakerTopology>
            <iidm:generator id="3a3b27be-b18b-4385-b557-6735d733baf0" name="BE-G1" energySource="OTHER" minP="-100.0" maxP="200.0" ratedS="300.0" voltageRegulatorOn="true" targetP="90.0" targetV="115.5" targetQ="100.256" bus="4ba71b59-ee2f-450b-9f7d-cc2f1cc5e386_0" connectableBus="4ba71b59-ee2f-450b-9f7d-cc2f1cc5e386_0" p="-90.0" q="73.56561350830026">
                <iidm:alias type="CGMES.Terminal1">beffa353-7d10-421d-9c08-036b744b1cee</iidm:alias>
                <iidm:property name="CGMES.GeneratingUnit" value="18993b11-2966-4bce-bab9-d86103f83b53"/>
                <iidm:property name="CGMES.RegulatingControl" value="6ba406ce-78cf-4485-9b01-a34e584f1a8d"/>
                <iidm:property name="CGMES.mode" value="http://iec.ch/tc57/cim100#regulatingcontrolmodekind.voltage"/>
                <iidm:property name="CGMES.originalClass" value="SynchronousMachine"/>
                <iidm:property name="CGMES.synchronousMachineType" value="generatorOrMotor"/>
                <iidm:regulatingTerminal id="a708c3bc-465d-4fe7-b6ef-6fa6408a62b0" side="TWO"/>
                <iidm:reactiveCapabilityCurve>
                    <iidm:point p="-100.0" minQ="-200.0" maxQ="200.0"/>
                    <iidm:point p="0.0" minQ="-300.0" maxQ="300.0"/>
                    <iidm:point p="200.0" minQ="-200.0" maxQ="200.0"/>
                </iidm:reactiveCapabilityCurve>
            </iidm:generator>
        </iidm:voltageLevel>
        <iidm:voltageLevel id="8bbd7e74-ae20-4dce-8780-c20f8e18c2e0" name="110.0" nominalV="110.0" lowVoltageLimit="99.0" highVoltageLimit="121.0" topologyKind="BUS_BREAKER">
            <iidm:property name="CGMES.highVoltageLimit" value="121.0"/>
            <iidm:property name="CGMES.lowVoltageLimit" value="99.0"/>
            <iidm:busBreakerTopology>
                <iidm:bus id="8bbd7e74-ae20-4dce-8780-c20f8e18c2e0_0" name="110.0_0" v="115.5" angle="1.455716792110074"/>
            </iidm:busBreakerTopology>
            <iidm:load id="cb459405-cc14-4215-a45c-416789205904" name="BE-Load_1" loadType="UNDEFINED" p0="200.0" q0="90.0" bus="8bbd7e74-ae20-4dce-8780-c20f8e18c2e0_0" connectableBus="8bbd7e74-ae20-4dce-8780-c20f8e18c2e0_0" p="200.0" q="90.0">
                <iidm:alias type="CGMES.Terminal1">cbdf1842-74ed-4fce-a5d4-0296c82cbc92</iidm:alias>
                <iidm:property name="CGMES.originalClass" value="ConformLoad"/>
                <iidm:property name="CGMES.pFixed" value="0.0"/>
                <iidm:property name="CGMES.qFixed" value="0.0"/>
            </iidm:load>
            <iidm:shunt id="d771118f-36e9-4115-a128-cc3d9ce3e3da" name="BE_S1" sectionCount="1" voltageRegulatorOn="false" targetV="110.0" targetDeadband="0.5" bus="8bbd7e74-ae20-4dce-8780-c20f8e18c2e0_0" connectableBus="8bbd7e74-ae20-4dce-8780-c20f8e18c2e0_0" q="-330.7500209475">
                <iidm:alias type="CGMES.Terminal1">d5e2e58e-ccf6-47d9-b3bb-3088eb7a9b6c</iidm:alias>
                <iidm:property name="CGMES.RegulatingControl" value="4d50f86d-0d12-4ca3-9430-56bb05f9eee6"/>
                <iidm:property name="CGMES.normalSections" value="1"/>
                <iidm:shuntLinearModel bPerSection="0.02479339" gPerSection="0.0" maximumSectionCount="1"/>
                <iidm:regulatingTerminal id="a708c3bc-465d-4fe7-b6ef-6fa6408a62b0" side="TWO"/>
            </iidm:shunt>
        </iidm:voltageLevel>
        <iidm:voltageLevel id="929ba893-c9dc-44d7-b1fd-30834bd3ab85" name="21.0" nominalV="21.0" lowVoltageLimit="18.9" highVoltageLimit="23.1" topologyKind="BUS_BREAKER">
            <iidm:property name="CGMES.highVoltageLimit" value="23.1"/>
            <iidm:property name="CGMES.lowVoltageLimit" value="18.9"/>
            <iidm:busBreakerTopology>
                <iidm:bus id="929ba893-c9dc-44d7-b1fd-30834bd3ab85_0" name="21.0_0" v="21.987" angle="1.2293560968434127"/>
            </iidm:busBreakerTopology>
            <iidm:generator id="550ebe0d-f2b2-48c1-991f-cebea43a21aa" name="BE-G2" energySource="OTHER" minP="50.0" maxP="200.0" ratedS="300.0" voltageRegulatorOn="true" targetP="118.0" targetV="21.987" targetQ="18.7203" bus="929ba893-c9dc-44d7-b1fd-30834bd3ab85_0" connectableBus="929ba893-c9dc-44d7-b1fd-30834bd3ab85_0" p="-118.0" q="-78.28451155080649">
                <iidm:alias type="CGMES.Terminal1">4bb5407b-b4a5-416c-80ad-1a778ada2b9b</iidm:alias>
                <iidm:property name="CGMES.GeneratingUnit" value="5b7a4d43-09ec-4033-882d-64a76d557631"/>
                <iidm:property name="CGMES.RegulatingControl" value="84bf5be8-eb59-4555-b131-fce4d2d7775d"/>
                <iidm:property name="CGMES.mode" value="http://iec.ch/tc57/cim100#regulatingcontrolmodekind.voltage"/>
                <iidm:property name="CGMES.originalClass" value="SynchronousMachine"/>
                <iidm:property name="CGMES.synchronousMachineType" value="generator"/>
                <iidm:minMaxReactiveLimits minQ="-200.0" maxQ="200.0"/>
            </iidm:generator>
        </iidm:voltageLevel>
        <iidm:voltageLevel id="b10b171b-3bc5-4849-bb1f-61ed9ea1ec7c" name="225.0" nominalV="225.0" lowVoltageLimit="202.5" highVoltageLimit="247.5" topologyKind="BUS_BREAKER">
            <iidm:property name="CGMES.highVoltageLimit" value="247.5"/>
            <iidm:property name="CGMES.lowVoltageLimit" value="202.5"/>
            <iidm:busBreakerTopology>
                <iidm:bus id="b10b171b-3bc5-4849-bb1f-61ed9ea1ec7c_0" name="225.0_0" v="224.65607473237617" angle="0.3345141623919676"/>
            </iidm:busBreakerTopology>
            <iidm:load id="1c6beed6-1acf-42e7-ba55-0cc9f04bddd8" name="BE-Load_2" loadType="UNDEFINED" p0="200.0" q0="50.0" bus="b10b171b-3bc5-4849-bb1f-61ed9ea1ec7c_0" connectableBus="b10b171b-3bc5-4849-bb1f-61ed9ea1ec7c_0" p="200.0" q="50.0">
                <iidm:alias type="CGMES.Terminal1">a036b765-1669-4f64-acd3-1e8fbd513312</iidm:alias>
                <iidm:property name="CGMES.originalClass" value="ConformLoad"/>
                <iidm:property name="CGMES.pFixed" value="0.0"/>
                <iidm:property name="CGMES.qFixed" value="0.0"/>
            </iidm:load>
        </iidm:voltageLevel>
        <iidm:twoWindingsTransformer id="a708c3bc-465d-4fe7-b6ef-6fa6408a62b0" name="BE-TR2_1" r="0.20476920750000005" x="1.0979918125" g="0.0" b="0.0" ratedU1="400.0" ratedU2="110.0" ratedS="650.0" voltageLevelId1="469df5f7-058f-4451-a998-57a48e8a56fe" bus1="469df5f7-058f-4451-a998-57a48e8a56fe_0" connectableBus1="469df5f7-058f-4451-a998-57a48e8a56fe_0" voltageLevelId2="8bbd7e74-ae20-4dce-8780-c20f8e18c2e0" bus2="8bbd7e74-ae20-4dce-8780-c20f8e18c2e0_0" connectableBus2="8bbd7e74-ae20-4dce-8780-c20f8e18c2e0_0" p1="110.2173553313636" q1="-179.70030642863807" p2="-109.5164031722575" q2="183.49823628100367">
            <iidm:alias type="CGMES.Terminal2">b30ac237-4ce9-4869-8562-a07aaae1a7fa</iidm:alias>
            <iidm:alias type="CGMES.TransformerEnd2">e22f3c30-63f5-47bf-a8c4-fee2483d426c</iidm:alias>
            <iidm:alias type="CGMES.TransformerEnd1">bf76ac9d-0144-48f5-a24a-34ae15a455fb</iidm:alias>
            <iidm:alias type="CGMES.Terminal1">2ba1ad70-3533-402d-8686-f3bcce2c2e82</iidm:alias>
            <iidm:alias type="CGMES.PhaseTapChanger1">63454a73-f439-45bb-951a-e7b193986571</iidm:alias>
            <iidm:phaseTapChanger regulating="false" lowTapPosition="1" tapPosition="10" regulationMode="FIXED_TAP">
                <iidm:step r="0.0" x="16.666689625247088" g="0.0" b="0.0" rho="1.0" alpha="8.578306657638038"/>
                <iidm:step r="0.0" x="14.017172031715235" g="0.0" b="0.0" rho="1.0" alpha="7.865792544461077"/>
                <iidm:step r="0.0" x="11.59390558020863" g="0.0" b="0.0" rho="1.0" alpha="7.152668749994702"/>
                <iidm:step r="0.0" x="9.398011466189136" g="0.0" b="0.0" rho="1.0" alpha="6.43898979370566"/>
                <iidm:step r="0.0" x="7.4305080651212405" g="0.0" b="0.0" rho="1.0" alpha="5.724810452223496"/>
                <iidm:step r="0.0" x="5.692309757556528" g="0.0" b="0.0" rho="1.0" alpha="5.010185734482799"/>
                <iidm:step r="0.0" x="4.184225870966231" g="0.0" b="0.0" rho="1.0" alpha="4.295170856597007"/>
                <iidm:step r="0.0" x="2.9069597405986505" g="0.0" b="0.0" rho="1.0" alpha="3.579821216492139"/>
                <iidm:step r="0.0" x="1.8611078913888883" g="0.0" b="0.0" rho="1.0" alpha="2.864192368329293"/>
                <iidm:step r="0.0" x="1.047159342692909" g="0.0" b="0.0" rho="1.0" alpha="2.1483399967452415"/>
                <iidm:step r="0.0" x="0.4654950373556615" g="0.0" b="0.0" rho="1.0" alpha="1.432319890940817"/>
                <iidm:step r="0.0" x="0.11638739635614605" g="0.0" b="0.0" rho="1.0" alpha="0.7161879186471423"/>
                <iidm:step r="0.0" x="0.0" g="0.0" b="0.0" rho="1.0" alpha="-0.0"/>
                <iidm:step r="0.0" x="0.11638739635614605" g="0.0" b="0.0" rho="1.0" alpha="-0.7161879186471423"/>
                <iidm:step r="0.0" x="0.4654950373556615" g="0.0" b="0.0" rho="1.0" alpha="-1.432319890940817"/>
                <iidm:step r="0.0" x="1.047159342692909" g="0.0" b="0.0" rho="1.0" alpha="-2.1483399967452415"/>
                <iidm:step r="0.0" x="1.8611078913888883" g="0.0" b="0.0" rho="1.0" alpha="-2.864192368329293"/>
                <iidm:step r="0.0" x="2.9069597405986505" g="0.0" b="0.0" rho="1.0" alpha="-3.579821216492139"/>
                <iidm:step r="0.0" x="4.184225870966231" g="0.0" b="0.0" rho="1.0" alpha="-4.295170856597007"/>
                <iidm:step r="0.0" x="5.692309757556528" g="0.0" b="0.0" rho="1.0" alpha="-5.010185734482799"/>
                <iidm:step r="0.0" x="7.4305080651212405" g="0.0" b="0.0" rho="1.0" alpha="-5.724810452223496"/>
                <iidm:step r="0.0" x="9.398011466189136" g="0.0" b="0.0" rho="1.0" alpha="-6.43898979370566"/>
                <iidm:step r="0.0" x="11.59390558020863" g="0.0" b="0.0" rho="1.0" alpha="-7.152668749994702"/>
                <iidm:step r="0.0" x="14.017172031715235" g="0.0" b="0.0" rho="1.0" alpha="-7.865792544461077"/>
                <iidm:step r="0.0" x="16.666689625247088" g="0.0" b="0.0" rho="1.0" alpha="-8.578306657638038"/>
            </iidm:phaseTapChanger>
            <iidm:currentLimits1 permanentLimit="938.1946"/>
            <iidm:currentLimits2 permanentLimit="3411.617"/>
        </iidm:twoWindingsTransformer>
        <iidm:twoWindingsTransformer id="b94318f6-6d24-4f56-96b9-df2531ad6543" name="BE-TR2_2" r="0.2057" x="2.78472" g="0.0" b="0.0" ratedU1="220.0" ratedU2="110.0" ratedS="650.0" voltageLevelId1="b10b171b-3bc5-4849-bb1f-61ed9ea1ec7c" bus1="b10b171b-3bc5-4849-bb1f-61ed9ea1ec7c_0" connectableBus1="b10b171b-3bc5-4849-bb1f-61ed9ea1ec7c_0" voltageLevelId2="8bbd7e74-ae20-4dce-8780-c20f8e18c2e0" bus2="8bbd7e74-ae20-4dce-8780-c20f8e18c2e0_0" connectableBus2="8bbd7e74-ae20-4dce-8780-c20f8e18c2e0_0" p1="0.837017148728721" q1="23.875527760570815" p2="-0.8283038229269858" q2="-23.757077228558966">
            <iidm:alias type="CGMES.TransformerEnd2">ba56158e-0c51-448d-999b-44cb0b3cebf5</iidm:alias>
            <iidm:alias type="CGMES.PhaseTapChanger1">36b83adb-3d45-4693-8967-96627b5f9ec9</iidm:alias>
            <iidm:alias type="CGMES.Terminal2">0ac86078-8267-4fd9-b6c2-27984975ffcc</iidm:alias>
            <iidm:alias type="CGMES.TransformerEnd1">3c59d1b0-1ee9-4ca3-9086-4fe102b51b21</iidm:alias>
            <iidm:alias type="CGMES.Terminal1">5a7b80f3-eeb3-4253-a792-5157c0946b15</iidm:alias>
            <iidm:phaseTapChanger regulating="false" lowTapPosition="1" tapPosition="10" regulationMode="FIXED_TAP">
                <iidm:step r="0.0" x="6.666738487172854" g="0.0" b="0.0" rho="1.14505222931285" alpha="4.926567934889113"/>
                <iidm:step r="0.0" x="5.601912201027185" g="0.0" b="0.0" rho="1.1317335959045691" alpha="4.4625049779277965"/>
                <iidm:step r="0.0" x="4.629679504981145" g="0.0" b="0.0" rho="1.1186503607803493" alpha="4.009142308337196"/>
                <iidm:step r="0.0" x="3.7500403990347353" g="0.0" b="0.0" rho="1.105799285684086" alpha="3.5661689080738133"/>
                <iidm:step r="0.0" x="2.96299488318794" g="0.0" b="0.0" rho="1.0931769923157548" alpha="3.133282879390916"/>
                <iidm:step r="0.0" x="2.268542957440758" g="0.0" b="0.0" rho="1.0807799860839817" alpha="2.7101913084587235"/>
                <iidm:step r="0.0" x="1.6666846217932214" g="0.0" b="0.0" rho="1.0686046775541467" alpha="2.296610111393503"/>
                <iidm:step r="0.0" x="1.1574198762452823" g="0.0" b="0.0" rho="1.0566474017760137" alpha="1.892263865774221"/>
                <iidm:step r="0.0" x="0.740748720796989" g="0.0" b="0.0" rho="1.0449044356636736" alpha="1.496885630374893"/>
                <iidm:step r="0.0" x="0.4166711554483093" g="0.0" b="0.0" rho="1.0333720135895301" alpha="1.1102167555229658"/>
                <iidm:step r="0.0" x="0.18518718019924324" g="0.0" b="0.0" rho="1.0220463413432221" alpha="0.7320066862066437"/>
                <iidm:step r="0.0" x="0.04629679504980683" g="0.0" b="0.0" rho="1.0109236085958764" alpha="0.36201275979482317"/>
                <iidm:step r="0.0" x="0.0" g="0.0" b="0.0" rho="1.0" alpha="-0.0"/>
                <iidm:step r="0.0" x="0.04629679504980683" g="0.0" b="0.0" rho="0.9892717050456789" alpha="-0.3542590914949466"/>
                <iidm:step r="0.0" x="0.18518718019924324" g="0.0" b="0.0" rho="0.9787349267845926" alpha="-0.7009847445128217"/>
                <iidm:step r="0.0" x="0.4166711554483093" g="0.0" b="0.0" rho="0.9683858895247094" alpha="-1.040390129895497"/>
                <iidm:step r="0.0" x="0.740748720796989" g="0.0" b="0.0" rho="0.958220845590376" alpha="-1.3726815681386877"/>
                <iidm:step r="0.0" x="1.1574198762452823" g="0.0" b="0.0" rho="0.9482360812348898" alpha="-1.698058736365395"/>
                <iidm:step r="0.0" x="1.6666846217932054" g="0.0" b="0.0" rho="0.9384279217854995" alpha="-2.016714872973585"/>
                <iidm:step r="0.0" x="2.268542957440758" g="0.0" b="0.0" rho="0.9287927360941372" alpha="-2.32883697939856"/>
                <iidm:step r="0.0" x="2.96299488318794" g="0.0" b="0.0" rho="0.9193269403610014" alpha="-2.6346060185232267"/>
                <iidm:step r="0.0" x="3.7500403990347353" g="0.0" b="0.0" rho="0.9100270013923849" alpha="-2.9341971093513304"/>
                <iidm:step r="0.0" x="4.629679504981145" g="0.0" b="0.0" rho="0.9008894393488354" alpha="-3.227779717630807"/>
                <iidm:step r="0.0" x="5.601912201027185" g="0.0" b="0.0" rho="0.8919108300348412" alpha="-3.515517842177712"/>
                <iidm:step r="0.0" x="6.666738487172854" g="0.0" b="0.0" rho="0.8830878067767173" alpha="-3.797570196706609"/>
            </iidm:phaseTapChanger>
            <iidm:currentLimits1 permanentLimit="1705.808"/>
            <iidm:currentLimits2 permanentLimit="3411.617"/>
        </iidm:twoWindingsTransformer>
        <iidm:twoWindingsTransformer id="e482b89a-fa84-4ea9-8e70-a83d44790957" name="BE-TR2_3" r="9.481455983629422E-4" x="0.05291146110953372" g="0.0019138297721711202" b="-0.00917007126111426" ratedU1="110.3438" ratedU2="10.5" ratedS="250.0" voltageLevelId1="8bbd7e74-ae20-4dce-8780-c20f8e18c2e0" bus1="8bbd7e74-ae20-4dce-8780-c20f8e18c2e0_0" connectableBus1="8bbd7e74-ae20-4dce-8780-c20f8e18c2e0_0" voltageLevelId2="4ba71b59-ee2f-450b-9f7d-cc2f1cc5e386" bus2="4ba71b59-ee2f-450b-9f7d-cc2f1cc5e386_0" connectableBus2="4ba71b59-ee2f-450b-9f7d-cc2f1cc5e386_0" p1="-89.65528744047168" q1="81.00886170680909" p2="89.999997125373" q2="-73.56561350830026">
            <iidm:alias type="CGMES.Terminal1">2de997a1-c43e-4d39-9e55-dfd7cf97121d</iidm:alias>
            <iidm:alias type="CGMES.TransformerEnd2">35651e25-a77a-46a1-92f4-443d6acce90e</iidm:alias>
            <iidm:alias type="CGMES.RatioTapChanger2">83cc66dd-8d93-4a2c-8103-f1f5a9cf7e2e</iidm:alias>
            <iidm:alias type="CGMES.TransformerEnd1">f58281c5-862a-465e-97ec-d809be6e24ab</iidm:alias>
            <iidm:alias type="CGMES.Terminal2">1182d878-2eaa-4eec-91be-ce7b2b1e7f9a</iidm:alias>
            <iidm:ratioTapChanger regulating="false" lowTapPosition="1" tapPosition="14" loadTapChangingCapabilities="true">
                <iidm:step r="-23.961600000000004" x="-23.961600000000004" g="31.512498947900024" b="31.512498947900024" rho="0.872"/>
                <iidm:step r="-22.560000000000002" x="-22.560000000000002" g="29.132231404958688" b="29.132231404958688" rho="0.8799999999999999"/>
                <iidm:step r="-21.145599999999998" x="-21.145599999999998" g="26.816005194383564" b="26.816005194383564" rho="0.888"/>
                <iidm:step r="-19.718399999999992" x="-19.718399999999992" g="24.56154336734693" b="24.56154336734693" rho="0.896"/>
                <iidm:step r="-18.278399999999994" x="-18.278399999999994" g="22.366669277155605" b="22.366669277155605" rho="0.904"/>
                <iidm:step r="-16.825599999999994" x="-16.825599999999994" g="20.22930132348415" b="20.22930132348415" rho="0.9120000000000001"/>
                <iidm:step r="-15.359999999999996" x="-15.359999999999996" g="18.14744801512287" b="18.14744801512287" rho="0.92"/>
                <iidm:step r="-13.881600000000017" x="-13.881600000000017" g="16.119203329369824" b="16.119203329369824" rho="0.9279999999999999"/>
                <iidm:step r="-12.390400000000012" x="-12.390400000000012" g="14.142742347870563" b="14.142742347870563" rho="0.936"/>
                <iidm:step r="-10.886400000000007" x="-10.886400000000007" g="12.216317150244183" b="12.216317150244183" rho="0.944"/>
                <iidm:step r="-9.36960000000001" x="-9.36960000000001" g="10.338252948238136" b="10.338252948238136" rho="0.952"/>
                <iidm:step r="-7.8400000000000025" x="-7.8400000000000025" g="8.506944444444443" b="8.506944444444443" rho="0.96"/>
                <iidm:step r="-6.297600000000003" x="-6.297600000000003" g="6.720852400792299" b="6.720852400792299" rho="0.9679999999999999"/>
                <iidm:step r="-4.742400000000002" x="-4.742400000000002" g="4.978500403117447" b="4.978500403117447" rho="0.9760000000000001"/>
                <iidm:step r="-3.1743999999999994" x="-3.1743999999999994" g="3.278471809108341" b="3.278471809108341" rho="0.9839999999999999"/>
                <iidm:step r="-1.5936000000000061" x="-1.5936000000000061" g="1.6194068678460072" b="1.6194068678460072" rho="0.992"/>
                <iidm:step r="0.0" x="0.0" g="0.0" b="0.0" rho="1.0"/>
                <iidm:step r="1.6064000000000078" x="1.6064000000000078" g="-1.5810027714789676" b="-1.5810027714789676" rho="1.008"/>
                <iidm:step r="3.2256000000000062" x="3.2256000000000062" g="-3.1248062496124995" b="-3.1248062496124995" rho="1.016"/>
                <iidm:step r="4.857599999999995" x="4.857599999999995" g="-4.632568359375" b="-4.632568359375" rho="1.024"/>
                <iidm:step r="6.502399999999997" x="6.502399999999997" g="-6.105402319572139" b="-6.105402319572139" rho="1.032"/>
                <iidm:step r="8.16000000000001" x="8.16000000000001" g="-7.544378698224863" b="-7.544378698224863" rho="1.04"/>
                <iidm:step r="9.830400000000017" x="9.830400000000017" g="-8.950527358545557" b="-8.950527358545557" rho="1.048"/>
                <iidm:step r="11.513600000000013" x="11.513600000000013" g="-10.324839302112043" b="-10.324839302112043" rho="1.056"/>
                <iidm:step r="13.209600000000021" x="13.209600000000021" g="-11.66826841539942" b="-11.66826841539942" rho="1.064"/>
                <iidm:step r="14.91840000000002" x="14.91840000000002" g="-12.981733125417705" b="-12.981733125417705" rho="1.072"/>
                <iidm:step r="16.64000000000001" x="16.64000000000001" g="-14.266117969821678" b="-14.266117969821678" rho="1.08"/>
                <iidm:step r="18.374400000000012" x="18.374400000000012" g="-15.5222750865052" b="-15.5222750865052" rho="1.088"/>
                <iidm:step r="20.12160000000003" x="20.12160000000003" g="-16.751025627364292" b="-16.751025627364292" rho="1.096"/>
                <iidm:step r="21.881600000000013" x="21.881600000000013" g="-17.953161100609126" b="-17.953161100609126" rho="1.104"/>
                <iidm:step r="23.65440000000003" x="23.65440000000003" g="-19.129444645722295" b="-19.129444645722295" rho="1.112"/>
                <iidm:step r="25.44000000000002" x="25.44000000000002" g="-20.280612244897966" b="-20.280612244897966" rho="1.12"/>
                <iidm:step r="27.23840000000002" x="27.23840000000002" g="-21.407373874553603" b="-21.407373874553603" rho="1.1280000000000001"/>
            </iidm:ratioTapChanger>
            <iidm:currentLimits1 permanentLimit="1308.072"/>
            <iidm:currentLimits2 permanentLimit="13746.44"/>
        </iidm:twoWindingsTransformer>
        <iidm:threeWindingsTransformer id="84ed55f4-61f5-4d9d-8755-bba7b877a246" name="BE-TR3_1" r1="0.898462" x1="17.20413" g1="0.0" b1="-2.4375E-6" ratedU1="400.0" ratedS1="650.0" r2="1.070770247933884" x2="19.6664" g2="0.0" b2="0.0" ratedU2="220.0" ratedS2="650.0" r3="4.837006802721088" x3="21.760725623582765" g3="0.0" b3="0.0" ratedU3="21.0" ratedS3="650.0" ratedU0="400.0" voltageLevelId1="469df5f7-058f-4451-a998-57a48e8a56fe" bus1="469df5f7-058f-4451-a998-57a48e8a56fe_0" connectableBus1="469df5f7-058f-4451-a998-57a48e8a56fe_0" voltageLevelId2="b10b171b-3bc5-4849-bb1f-61ed9ea1ec7c" bus2="b10b171b-3bc5-4849-bb1f-61ed9ea1ec7c_0" connectableBus2="b10b171b-3bc5-4849-bb1f-61ed9ea1ec7c_0" voltageLevelId3="929ba893-c9dc-44d7-b1fd-30834bd3ab85" bus3="929ba893-c9dc-44d7-b1fd-30834bd3ab85_0" connectableBus3="929ba893-c9dc-44d7-b1fd-30834bd3ab85_0" p1="-86.31226589633188" q1="27.565861652265127" p2="-31.020480067659378" q2="-100.81221924659043" p3="118.00000080485442" q3="78.28451155080649">
            <iidm:alias type="CGMES.Terminal3">e754f4c1-6aa0-43d2-98cb-ecf5ba12077b</iidm:alias>
            <iidm:alias type="CGMES.TransformerEnd2">e1f661c0-971d-4ce5-ad39-0ec427f288ab</iidm:alias>
            <iidm:alias type="CGMES.TransformerEnd1">5f68a129-d5d8-4b71-9743-9ca2572ba26b</iidm:alias>
            <iidm:alias type="CGMES.Terminal1">056b689f-1dab-48b3-8ac5-4eb11ca05d84</iidm:alias>
            <iidm:alias type="CGMES.TransformerEnd3">2e21d1ef-2287-434c-a767-1ca807cf2478</iidm:alias>
            <iidm:alias type="CGMES.RatioTapChanger2">fe25f43a-7341-446e-a71a-8ab7119ba806</iidm:alias>
            <iidm:alias type="CGMES.Terminal2">53fd6693-57e6-482e-8fbe-dcf3531a7ce0</iidm:alias>
            <iidm:property name="angle" value="0.5048858263772423"/>
            <iidm:property name="v" value="413.4025442660552"/>
            <iidm:ratioTapChanger2 regulating="false" lowTapPosition="1" tapPosition="17" loadTapChangingCapabilities="true">
                <iidm:step r="0.0" x="0.0" g="0.0" b="0.0" rho="1.1111111111111112"/>
                <iidm:step r="0.0" x="0.0" g="0.0" b="0.0" rho="1.103448275862069"/>
                <iidm:step r="0.0" x="0.0" g="0.0" b="0.0" rho="1.095890410958904"/>
                <iidm:step r="0.0" x="0.0" g="0.0" b="0.0" rho="1.08843537414966"/>
                <iidm:step r="0.0" x="0.0" g="0.0" b="0.0" rho="1.081081081081081"/>
                <iidm:step r="0.0" x="0.0" g="0.0" b="0.0" rho="1.0738255033557047"/>
                <iidm:step r="0.0" x="0.0" g="0.0" b="0.0" rho="1.0666666666666667"/>
                <iidm:step r="0.0" x="0.0" g="0.0" b="0.0" rho="1.0596026490066226"/>
                <iidm:step r="0.0" x="0.0" g="0.0" b="0.0" rho="1.0526315789473684"/>
                <iidm:step r="0.0" x="0.0" g="0.0" b="0.0" rho="1.0457516339869282"/>
                <iidm:step r="0.0" x="0.0" g="0.0" b="0.0" rho="1.0389610389610389"/>
                <iidm:step r="0.0" x="0.0" g="0.0" b="0.0" rho="1.032258064516129"/>
                <iidm:step r="0.0" x="0.0" g="0.0" b="0.0" rho="1.0256410256410258"/>
                <iidm:step r="0.0" x="0.0" g="0.0" b="0.0" rho="1.019108280254777"/>
                <iidm:step r="0.0" x="0.0" g="0.0" b="0.0" rho="1.0126582278481011"/>
                <iidm:step r="0.0" x="0.0" g="0.0" b="0.0" rho="1.0062893081761006"/>
                <iidm:step r="0.0" x="0.0" g="0.0" b="0.0" rho="1.0"/>
                <iidm:step r="0.0" x="0.0" g="0.0" b="0.0" rho="0.9937888198757763"/>
                <iidm:step r="0.0" x="0.0" g="0.0" b="0.0" rho="0.9876543209876544"/>
                <iidm:step r="0.0" x="0.0" g="0.0" b="0.0" rho="0.9815950920245399"/>
                <iidm:step r="0.0" x="0.0" g="0.0" b="0.0" rho="0.9756097560975611"/>
                <iidm:step r="0.0" x="0.0" g="0.0" b="0.0" rho="0.9696969696969697"/>
                <iidm:step r="0.0" x="0.0" g="0.0" b="0.0" rho="0.9638554216867469"/>
                <iidm:step r="0.0" x="0.0" g="0.0" b="0.0" rho="0.9580838323353293"/>
                <iidm:step r="0.0" x="0.0" g="0.0" b="0.0" rho="0.9523809523809523"/>
                <iidm:step r="0.0" x="0.0" g="0.0" b="0.0" rho="0.9467455621301776"/>
                <iidm:step r="0.0" x="0.0" g="0.0" b="0.0" rho="0.9411764705882353"/>
                <iidm:step r="0.0" x="0.0" g="0.0" b="0.0" rho="0.935672514619883"/>
                <iidm:step r="0.0" x="0.0" g="0.0" b="0.0" rho="0.9302325581395349"/>
                <iidm:step r="0.0" x="0.0" g="0.0" b="0.0" rho="0.9248554913294798"/>
                <iidm:step r="0.0" x="0.0" g="0.0" b="0.0" rho="0.9195402298850576"/>
                <iidm:step r="0.0" x="0.0" g="0.0" b="0.0" rho="0.9142857142857143"/>
                <iidm:step r="0.0" x="0.0" g="0.0" b="0.0" rho="0.9090909090909091"/>
            </iidm:ratioTapChanger2>
            <iidm:currentLimits1 permanentLimit="938.1946"/>
            <iidm:currentLimits2 permanentLimit="1705.808"/>
            <iidm:currentLimits3 permanentLimit="17870.37"/>
        </iidm:threeWindingsTransformer>
    </iidm:substation>
    <iidm:substation id="87f7002b-056f-4a6a-a872-1744eea757e3" name="Anvers" country="BE" geographicalTags="ELIA-Anvers">
        <iidm:property name="CGMES.regionId" value="7bf89875-1476-4d1a-a56d-a2965cce3575"/>
        <iidm:property name="CGMES.regionName" value="BE"/>
        <iidm:property name="CGMES.subRegionId" value="02047c0b-b5a4-4e0d-bae6-fc5437a55e74"/>
        <iidm:voltageLevel id="69ef0dbd-da79-4eef-a02f-690cb8a28361" name="225.0" nominalV="225.0" lowVoltageLimit="202.5" highVoltageLimit="247.5" topologyKind="BUS_BREAKER">
            <iidm:property name="CGMES.highVoltageLimit" value="247.5"/>
            <iidm:property name="CGMES.lowVoltageLimit" value="202.5"/>
            <iidm:busBreakerTopology>
                <iidm:bus id="69ef0dbd-da79-4eef-a02f-690cb8a28361_0" name="225.0_0" v="223.57366051279868" angle="4.982307563039528"/>
                <iidm:bus id="69ef0dbd-da79-4eef-a02f-690cb8a28361_1" name="225.0_1" v="226.6888705410805" angle="1.3893960235676057"/>
            </iidm:busBreakerTopology>
            <iidm:load id="b1480a00-b427-4001-a26c-51954d2bb7e9" name="L-1230804819" loadType="UNDEFINED" p0="1.0" q0="0.0" bus="69ef0dbd-da79-4eef-a02f-690cb8a28361_0" connectableBus="69ef0dbd-da79-4eef-a02f-690cb8a28361_0" p="1.0" q="0.0">
                <iidm:alias type="CGMES.Terminal1">b9376bea-c75d-49f3-94ca-6a71fa0086a5</iidm:alias>
                <iidm:property name="CGMES.originalClass" value="ConformLoad"/>
                <iidm:property name="CGMES.pFixed" value="0.0"/>
                <iidm:property name="CGMES.qFixed" value="0.0"/>
            </iidm:load>
            <iidm:danglingLine id="17086487-56ba-4979-b8de-064025a6b4da" name="BE-Line_1" p0="-83.18928" q0="1.501529" r="2.2" x="68.2" g="3.08E-5" b="8.2938E-5" bus="69ef0dbd-da79-4eef-a02f-690cb8a28361_0" connectableBus="69ef0dbd-da79-4eef-a02f-690cb8a28361_0" ucteXnodeCode="Border_ST23" p="-81.34200553468328" q="6.894738116806747">
                <iidm:alias type="CGMES.Terminal1">70d962fb-a492-4c36-8cad-b5c584df53bd</iidm:alias>
                <iidm:alias type="CGMES.Terminal_Boundary">1ef0715a-d5a9-477b-b6e7-b635529ac140</iidm:alias>
                <iidm:property name="CGMES.ConnectivityNode_Boundary" value="b66f15c0-cb6e-11e1-bcee-406c8f32ef58"/>
                <iidm:property name="CGMES.EquivalentInjection" value="87ea56f3-962a-427a-85d6-13b1f9295174"/>
                <iidm:property name="CGMES.EquivalentInjectionTerminal" value="d238885e-d9b6-4edc-8567-6a68c605ed67"/>
                <iidm:property name="CGMES.Terminal" value="70d962fb-a492-4c36-8cad-b5c584df53bd"/>
                <iidm:property name="CGMES.Terminal_Boundary" value="1ef0715a-d5a9-477b-b6e7-b635529ac140"/>
                <iidm:property name="CGMES.originalClass" value="ACLineSegment"/>
                <iidm:property name="angle" value="11.535792850888436"/>
                <iidm:property name="lineEnergyIdentificationCodeEIC" value="10T-AT-DE-00016Z"/>
                <iidm:property name="v" value="222.47511616946665"/>
                <iidm:currentLimits permanentLimit="1500.0">
                    <iidm:temporaryLimit name="TATL" acceptableDuration="600" value="500.0"/>
                </iidm:currentLimits>
            </iidm:danglingLine>
            <iidm:danglingLine id="a16b4a6c-70b1-4abf-9a9d-bd0fa47f9fe4" name="BE-Line_7" p0="-103.7413" q0="11.31944" r="4.6" x="69.0" g="5.75E-5" b="2.1677E-5" bus="69ef0dbd-da79-4eef-a02f-690cb8a28361_1" connectableBus="69ef0dbd-da79-4eef-a02f-690cb8a28361_1" ucteXnodeCode="Border_ST24" p="-99.77917527284932" q="25.3149134437099">
                <iidm:alias type="CGMES.Terminal1">5b2c65b0-68ce-4530-85b7-385346a3b5e1</iidm:alias>
                <iidm:alias type="CGMES.Terminal_Boundary">57ae9251-c022-4c67-a8eb-611ad54c963c</iidm:alias>
                <iidm:property name="CGMES.ConnectivityNode_Boundary" value="b6978550-cb6e-11e1-bcee-406c8f32ef58"/>
                <iidm:property name="CGMES.EquivalentInjection" value="f7f61a91-eca2-4492-8bd7-9ec2b28fc837"/>
                <iidm:property name="CGMES.EquivalentInjectionTerminal" value="4a7363a4-0b21-4f65-8bba-33e3a8f6bac3"/>
                <iidm:property name="CGMES.Terminal" value="5b2c65b0-68ce-4530-85b7-385346a3b5e1"/>
                <iidm:property name="CGMES.Terminal_Boundary" value="57ae9251-c022-4c67-a8eb-611ad54c963c"/>
                <iidm:property name="CGMES.originalClass" value="ACLineSegment"/>
                <iidm:property name="angle" value="9.589171375043897"/>
                <iidm:property name="lineEnergyIdentificationCodeEIC" value="10T-AT-DE-00017X"/>
                <iidm:property name="v" value="223.00896502516792"/>
                <iidm:currentLimits permanentLimit="1062.0">
                    <iidm:temporaryLimit name="TATL" acceptableDuration="600" value="500.0"/>
                </iidm:currentLimits>
            </iidm:danglingLine>
            <iidm:staticVarCompensator id="3c69652c-ff14-4550-9a87-b6fdaccbb5f4" name="SVC-1230797516" bMin="-1.9753086419753085E-4" bMax="1.9753086419753085E-4" voltageSetpoint="229.5" regulationMode="VOLTAGE" bus="69ef0dbd-da79-4eef-a02f-690cb8a28361_0" connectableBus="69ef0dbd-da79-4eef-a02f-690cb8a28361_0" p="0.0" q="-9.879746839493071">
                <iidm:alias type="CGMES.Terminal1">67bb74f1-8620-4a32-9d7d-a44092d11d22</iidm:alias>
                <iidm:property name="CGMES.RegulatingControl" value="caf65447-3cfb-48d7-aaaa-cd9af3d34261"/>
                <iidm:regulatingTerminal id="b1480a00-b427-4001-a26c-51954d2bb7e9"/>
            </iidm:staticVarCompensator>
        </iidm:voltageLevel>
    </iidm:substation>
    <iidm:line id="b58bf21a-096a-4dae-9a01-3f03b60c24c7" name="BE-Line_2" r="1.935" x="34.2" g1="3.375E-5" b1="2.120575E-5" g2="3.375E-5" b2="2.120575E-5" voltageLevelId1="b10b171b-3bc5-4849-bb1f-61ed9ea1ec7c" bus1="b10b171b-3bc5-4849-bb1f-61ed9ea1ec7c_0" connectableBus1="b10b171b-3bc5-4849-bb1f-61ed9ea1ec7c_0" voltageLevelId2="69ef0dbd-da79-4eef-a02f-690cb8a28361" bus2="69ef0dbd-da79-4eef-a02f-690cb8a28361_0" connectableBus2="69ef0dbd-da79-4eef-a02f-690cb8a28361_0" p1="-116.24721447750386" q1="17.542916552476182" p2="120.18426140860426" q2="-10.011029831047846">
        <iidm:alias type="CGMES.Terminal1">699545b9-82b9-4331-bc80-538d73b4ba56</iidm:alias>
        <iidm:alias type="CGMES.Terminal2">77f04391-aa23-49b6-b3e9-6089130bb5d5</iidm:alias>
        <iidm:property name="CGMES.originalClass" value="ACLineSegment"/>
        <iidm:currentLimits1 permanentLimit="1574.0">
            <iidm:temporaryLimit name="TATL" acceptableDuration="600" value="500.0"/>
        </iidm:currentLimits1>
        <iidm:currentLimits2 permanentLimit="1574.0">
            <iidm:temporaryLimit name="TATL" acceptableDuration="600" value="500.0"/>
        </iidm:currentLimits2>
    </iidm:line>
    <iidm:line id="df16b3dd-c905-4a6f-84ee-f067be86f5da" name="SER-RLC-1230822986" r="0.0" x="-31.83099" g1="0.0" b1="0.0" g2="0.0" b2="0.0" voltageLevelId1="69ef0dbd-da79-4eef-a02f-690cb8a28361" bus1="69ef0dbd-da79-4eef-a02f-690cb8a28361_0" connectableBus1="69ef0dbd-da79-4eef-a02f-690cb8a28361_0" voltageLevelId2="69ef0dbd-da79-4eef-a02f-690cb8a28361" bus2="69ef0dbd-da79-4eef-a02f-690cb8a28361_1" connectableBus2="69ef0dbd-da79-4eef-a02f-690cb8a28361_1" p1="-99.77917637477219" q1="18.7510206286221" p2="99.77917637477252" q2="-25.314914866899755">
        <iidm:alias type="CGMES.Terminal1">8171fc34-6891-40e0-92d1-da9f4ba69e26</iidm:alias>
        <iidm:alias type="CGMES.Terminal2">13dcec71-4b02-4c0c-93a7-8e16db4aa0b7</iidm:alias>
        <iidm:property name="CGMES.originalClass" value="SeriesCompensator"/>
        <iidm:currentLimits1 permanentLimit="500.0"/>
        <iidm:currentLimits2 permanentLimit="500.0"/>
    </iidm:line>
    <iidm:line id="ffbabc27-1ccd-4fdc-b037-e341706c8d29" name="BE-Line_6" r="5.203" x="71.0" g1="6.0E-5" b1="1.000595E-5" g2="6.0E-5" b2="1.000595E-5" voltageLevelId1="b10b171b-3bc5-4849-bb1f-61ed9ea1ec7c" bus1="b10b171b-3bc5-4849-bb1f-61ed9ea1ec7c_0" connectableBus1="b10b171b-3bc5-4849-bb1f-61ed9ea1ec7c_0" voltageLevelId2="69ef0dbd-da79-4eef-a02f-690cb8a28361" bus2="69ef0dbd-da79-4eef-a02f-690cb8a28361_0" connectableBus2="69ef0dbd-da79-4eef-a02f-690cb8a28361_0" p1="-53.56929019058051" q1="9.393773040429465" p2="59.936950265893515" q2="-5.754818407136776">
        <iidm:alias type="CGMES.Terminal1">05a17350-55f5-4a00-9a50-8c0048a25495</iidm:alias>
        <iidm:alias type="CGMES.Terminal2">a4d42d33-ae54-4fe9-ad59-f30da0dfb809</iidm:alias>
        <iidm:property name="CGMES.originalClass" value="ACLineSegment"/>
        <iidm:currentLimits1 permanentLimit="1312.0">
            <iidm:temporaryLimit name="TATL" acceptableDuration="600" value="500.0"/>
        </iidm:currentLimits1>
        <iidm:currentLimits2 permanentLimit="1312.0">
            <iidm:temporaryLimit name="TATL" acceptableDuration="600" value="500.0"/>
        </iidm:currentLimits2>
    </iidm:line>
</iidm:network>
